<?xml version="1.0" encoding="UTF-8"?>

<!-- generated on 2022-08-17 15:37:37 by Eclipse SUMO netconvert Version 1.10.0
<configuration xmlns:xsi="http://www.w3.org/2001/XMLSchema-instance" xsi:noNamespaceSchemaLocation="http://sumo.dlr.de/xsd/netconvertConfiguration.xsd">

    <input>
        <type-files value="/usr/share/sumo/data/typemap/osmNetconvert.typ.xml"/>
        <osm-files value="osm_bbox.osm.xml"/>
    </input>

    <output>
        <output-file value="osm.net.xml"/>
        <output.street-names value="true"/>
        <output.original-names value="true"/>
    </output>

    <projection>
        <proj.utm value="true"/>
    </projection>

    <processing>
        <geometry.remove value="true"/>
        <roundabouts.guess value="true"/>
        <lefthand value="true"/>
    </processing>

    <tls_building>
        <tls.discard-simple value="true"/>
        <tls.join value="true"/>
        <tls.guess-signals value="true"/>
        <tls.default-type value="actuated"/>
    </tls_building>

    <ramp_guessing>
        <ramps.guess value="true"/>
    </ramp_guessing>

    <junctions>
        <junctions.join value="true"/>
        <junctions.corner-detail value="5"/>
    </junctions>

    <report>
        <verbose value="true"/>
        <aggregate-warnings value="5"/>
    </report>

</configuration>
-->

<net version="1.9" junctionCornerDetail="5" lefthand="true" limitTurnSpeed="5.50" xmlns:xsi="http://www.w3.org/2001/XMLSchema-instance" xsi:noNamespaceSchemaLocation="http://sumo.dlr.de/xsd/net_file.xsd">

    <location netOffset="-675554.56,-4614370.67" convBoundary="0.00,-0.00,651.62,2784.21" origBoundary="-0.890899,41.661624,-0.883526,41.686792" projParameter="+proj=utm +zone=30 +ellps=WGS84 +datum=WGS84 +units=m +no_defs"/>

    <type id="highway.bridleway" priority="1" numLanes="1" speed="2.78" allow="pedestrian" oneway="1" width="2.00"/>
    <type id="highway.bus_guideway" priority="1" numLanes="1" speed="27.78" allow="bus" oneway="1"/>
    <type id="highway.cycleway" priority="1" numLanes="1" speed="8.33" allow="bicycle" oneway="0" width="1.00"/>
    <type id="highway.footway" priority="1" numLanes="1" speed="2.78" allow="pedestrian" oneway="1" width="2.00"/>
    <type id="highway.ford" priority="1" numLanes="1" speed="2.78" allow="army" oneway="0"/>
    <type id="highway.living_street" priority="2" numLanes="1" speed="2.78" disallow="tram rail_urban rail rail_electric rail_fast ship" oneway="0"/>
    <type id="highway.motorway" priority="14" numLanes="2" speed="39.44" allow="private emergency authority army vip passenger hov taxi bus coach delivery truck trailer motorcycle evehicle custom1 custom2" oneway="1"/>
    <type id="highway.motorway_link" priority="9" numLanes="1" speed="22.22" allow="private emergency authority army vip passenger hov taxi bus coach delivery truck trailer motorcycle evehicle custom1 custom2" oneway="1"/>
    <type id="highway.path" priority="1" numLanes="1" speed="2.78" allow="pedestrian bicycle" oneway="0" width="2.00"/>
    <type id="highway.pedestrian" priority="1" numLanes="1" speed="2.78" allow="pedestrian" oneway="1" width="2.00"/>
    <type id="highway.primary" priority="12" numLanes="2" speed="27.78" disallow="tram rail_urban rail rail_electric rail_fast ship" oneway="0"/>
    <type id="highway.primary_link" priority="7" numLanes="1" speed="22.22" disallow="tram rail_urban rail rail_electric rail_fast ship" oneway="0"/>
    <type id="highway.raceway" priority="15" numLanes="2" speed="83.33" allow="vip" oneway="0"/>
    <type id="highway.residential" priority="3" numLanes="1" speed="13.89" disallow="tram rail_urban rail rail_electric rail_fast ship" oneway="0"/>
    <type id="highway.secondary" priority="11" numLanes="1" speed="27.78" disallow="tram rail_urban rail rail_electric rail_fast ship" oneway="0"/>
    <type id="highway.secondary_link" priority="6" numLanes="1" speed="22.22" disallow="tram rail_urban rail rail_electric rail_fast ship" oneway="0"/>
    <type id="highway.service" priority="1" numLanes="1" speed="5.56" allow="pedestrian delivery bicycle" oneway="0"/>
    <type id="highway.stairs" priority="1" numLanes="1" speed="1.39" allow="pedestrian" oneway="1" width="2.00"/>
    <type id="highway.step" priority="1" numLanes="1" speed="1.39" allow="pedestrian" oneway="1" width="2.00"/>
    <type id="highway.steps" priority="1" numLanes="1" speed="1.39" allow="pedestrian" oneway="1" width="2.00"/>
    <type id="highway.tertiary" priority="10" numLanes="1" speed="22.22" disallow="tram rail_urban rail rail_electric rail_fast ship" oneway="0"/>
    <type id="highway.tertiary_link" priority="5" numLanes="1" speed="22.22" disallow="tram rail_urban rail rail_electric rail_fast ship" oneway="0"/>
    <type id="highway.track" priority="1" numLanes="1" speed="5.56" allow="pedestrian motorcycle moped bicycle" oneway="0"/>
    <type id="highway.trunk" priority="13" numLanes="2" speed="27.78" disallow="pedestrian bicycle tram rail_urban rail rail_electric rail_fast ship" oneway="0"/>
    <type id="highway.trunk_link" priority="8" numLanes="1" speed="22.22" disallow="pedestrian bicycle tram rail_urban rail rail_electric rail_fast ship" oneway="0"/>
    <type id="highway.unclassified" priority="4" numLanes="1" speed="13.89" disallow="tram rail_urban rail rail_electric rail_fast ship" oneway="0"/>
    <type id="highway.unsurfaced" priority="1" numLanes="1" speed="8.33" disallow="tram rail_urban rail rail_electric rail_fast ship" oneway="0"/>
    <type id="railway.highspeed" priority="21" numLanes="1" speed="69.44" allow="rail_fast" oneway="1"/>
    <type id="railway.light_rail" priority="19" numLanes="1" speed="27.78" allow="rail_urban" oneway="1"/>
    <type id="railway.preserved" priority="16" numLanes="1" speed="27.78" allow="rail" oneway="1"/>
    <type id="railway.rail" priority="20" numLanes="1" speed="44.44" allow="rail" oneway="1"/>
    <type id="railway.subway" priority="18" numLanes="1" speed="27.78" allow="rail_urban" oneway="1"/>
    <type id="railway.tram" priority="17" numLanes="1" speed="13.89" allow="tram" oneway="1"/>

    <edge id=":1267575603_0" function="internal">
        <lane id=":1267575603_0_0" index="0" allow="tram" speed="13.89" length="5.04" shape="138.86,1613.75 138.78,1618.79"/>
    </edge>
    <edge id=":1267575991_0" function="internal">
        <lane id=":1267575991_0_0" index="0" allow="bus tram" speed="13.89" length="5.01" shape="11.58,1783.80 11.66,1778.79"/>
    </edge>
    <edge id=":1267576608_0" function="internal">
        <lane id=":1267576608_0_0" index="0" allow="pedestrian delivery bicycle" speed="5.56" length="4.99" shape="87.32,1818.40 92.31,1818.48"/>
    </edge>
    <edge id=":1313114887_0" function="internal">
        <lane id=":1313114887_0_0" index="0" allow="pedestrian delivery bicycle" speed="5.56" length="5.04" shape="71.15,1626.39 76.19,1626.50"/>
    </edge>
    <edge id=":1313114910_0" function="internal">
        <lane id=":1313114910_0_0" index="0" allow="pedestrian delivery bicycle" speed="5.56" length="7.17" shape="114.70,1632.79 114.40,1633.88 113.29,1634.65 111.38,1635.08 108.65,1635.18"/>
    </edge>
    <edge id=":1313114910_1" function="internal">
        <lane id=":1313114910_1_0" index="0" allow="pedestrian delivery bicycle" speed="5.56" length="9.48" shape="114.70,1632.79 114.39,1635.45 113.34,1637.16 112.19,1638.87 111.62,1641.54"/>
    </edge>
    <edge id=":1313114910_2" function="internal">
        <lane id=":1313114910_2_0" index="0" allow="pedestrian delivery bicycle" speed="5.56" length="10.15" shape="114.82,1641.61 114.48,1638.85 113.34,1636.85 111.40,1635.63 108.65,1635.18"/>
    </edge>
    <edge id=":1313114910_3" function="internal">
        <lane id=":1313114910_3_0" index="0" allow="pedestrian delivery bicycle" speed="3.65" length="4.67" shape="114.82,1641.61 114.04,1640.39 113.25,1639.97 112.44,1640.36 111.62,1641.54"/>
    </edge>
    <edge id=":1313114910_4" function="internal">
        <lane id=":1313114910_4_0" index="0" allow="pedestrian delivery bicycle" speed="5.04" length="5.00" shape="108.58,1638.38 109.94,1638.60 110.89,1639.20 111.45,1640.18 111.62,1641.54"/>
    </edge>
    <edge id=":1313114910_5" function="internal">
        <lane id=":1313114910_5_0" index="0" allow="pedestrian delivery bicycle" speed="3.65" length="4.67" shape="108.58,1638.38 109.80,1637.61 110.22,1636.82 109.84,1636.01 108.65,1635.18"/>
    </edge>
    <edge id=":1313114913_0" function="internal">
        <lane id=":1313114913_0_0" index="0" allow="pedestrian delivery bicycle" speed="5.56" length="5.05" shape="76.13,1634.48 71.08,1634.38"/>
    </edge>
    <edge id=":1313114913_1" function="internal">
        <lane id=":1313114913_1_0" index="0" allow="pedestrian delivery bicycle" speed="3.65" length="2.34" shape="76.13,1634.48 74.91,1635.26 74.50,1636.05"/>
    </edge>
    <edge id=":1313114913_4" function="internal">
        <lane id=":1313114913_4_0" index="0" allow="pedestrian delivery bicycle" speed="3.65" length="2.34" shape="74.50,1636.05 74.88,1636.86 76.06,1637.68"/>
    </edge>
    <edge id=":1313114913_2" function="internal">
        <lane id=":1313114913_2_0" index="0" allow="pedestrian delivery bicycle" speed="5.56" length="5.05" shape="71.02,1637.58 76.06,1637.68"/>
    </edge>
    <edge id=":1313114913_3" function="internal">
        <lane id=":1313114913_3_0" index="0" allow="pedestrian delivery bicycle" speed="3.65" length="2.34" shape="71.02,1637.58 72.23,1636.80 72.65,1636.01"/>
    </edge>
    <edge id=":1313114913_5" function="internal">
        <lane id=":1313114913_5_0" index="0" allow="pedestrian delivery bicycle" speed="3.65" length="2.34" shape="72.65,1636.01 72.26,1635.20 71.08,1634.38"/>
    </edge>
    <edge id=":1313114917_0" function="internal">
        <lane id=":1313114917_0_0" index="0" allow="pedestrian delivery bicycle" speed="5.06" length="5.02" shape="36.20,1633.71 34.83,1633.49 33.86,1632.89 33.29,1631.91 33.12,1630.56"/>
    </edge>
    <edge id=":1313114917_1" function="internal">
        <lane id=":1313114917_1_0" index="0" allow="pedestrian delivery bicycle" speed="3.65" length="4.67" shape="36.20,1633.71 34.98,1634.49 34.57,1635.28 34.95,1636.09 36.14,1636.91"/>
    </edge>
    <edge id=":1313114917_2" function="internal">
        <lane id=":1313114917_2_0" index="0" allow="pedestrian delivery bicycle" speed="5.03" length="5.01" shape="32.99,1639.96 33.20,1638.60 33.80,1637.64 34.78,1637.08 36.14,1636.91"/>
    </edge>
    <edge id=":1313114917_3" function="internal">
        <lane id=":1313114917_3_0" index="0" allow="pedestrian delivery bicycle" speed="5.56" length="9.40" shape="32.99,1639.96 33.12,1630.56"/>
    </edge>
    <edge id=":1313114923_0" function="internal">
        <lane id=":1313114923_0_0" index="0" allow="pedestrian delivery bicycle" speed="5.04" length="5.00" shape="111.51,1646.98 111.29,1648.33 110.69,1649.29 109.71,1649.85 108.35,1650.01"/>
    </edge>
    <edge id=":1313114923_1" function="internal">
        <lane id=":1313114923_1_0" index="0" allow="pedestrian delivery bicycle" speed="5.56" length="9.40" shape="111.51,1646.98 111.33,1656.37"/>
    </edge>
    <edge id=":1313114923_2" function="internal">
        <lane id=":1313114923_2_0" index="0" allow="pedestrian delivery bicycle" speed="3.65" length="4.67" shape="111.51,1646.98 112.29,1648.19 113.08,1648.61 113.89,1648.22 114.71,1647.04"/>
    </edge>
    <edge id=":1313114923_3" function="internal">
        <lane id=":1313114923_3_0" index="0" allow="pedestrian delivery bicycle" speed="5.56" length="9.40" shape="114.53,1656.44 114.71,1647.04"/>
    </edge>
    <edge id=":1313114923_4" function="internal">
        <lane id=":1313114923_4_0" index="0" allow="pedestrian delivery bicycle" speed="5.56" length="10.16" shape="114.53,1656.44 114.19,1653.68 113.05,1651.69 111.10,1650.47 108.35,1650.01"/>
    </edge>
    <edge id=":1313114923_5" function="internal">
        <lane id=":1313114923_5_0" index="0" allow="pedestrian delivery bicycle" speed="3.65" length="4.67" shape="114.53,1656.44 113.75,1655.22 112.96,1654.81 112.15,1655.19 111.33,1656.37"/>
    </edge>
    <edge id=":1313114923_6" function="internal">
        <lane id=":1313114923_6_0" index="0" allow="pedestrian delivery bicycle" speed="5.05" length="5.01" shape="108.28,1653.21 109.64,1653.43 110.60,1654.04 111.16,1655.02 111.33,1656.37"/>
    </edge>
    <edge id=":1313114923_7" function="internal">
        <lane id=":1313114923_7_0" index="0" allow="pedestrian delivery bicycle" speed="5.56" length="10.18" shape="108.28,1653.21 111.05,1652.88 113.04,1651.74 114.27,1649.79 114.71,1647.04"/>
    </edge>
    <edge id=":1313114923_8" function="internal">
        <lane id=":1313114923_8_0" index="0" allow="pedestrian delivery bicycle" speed="3.65" length="4.67" shape="108.28,1653.21 109.49,1652.44 109.91,1651.65 109.53,1650.84 108.35,1650.01"/>
    </edge>
    <edge id=":1313114925_0" function="internal">
        <lane id=":1313114925_0_0" index="0" allow="pedestrian delivery bicycle" speed="5.56" length="5.14" shape="75.92,1649.27 70.78,1649.23"/>
    </edge>
    <edge id=":1313114925_1" function="internal">
        <lane id=":1313114925_1_0" index="0" allow="pedestrian delivery bicycle" speed="3.65" length="2.34" shape="75.92,1649.27 74.70,1650.04 74.28,1650.83"/>
    </edge>
    <edge id=":1313114925_4" function="internal">
        <lane id=":1313114925_4_0" index="0" allow="pedestrian delivery bicycle" speed="3.65" length="2.34" shape="74.28,1650.83 74.66,1651.64 75.84,1652.47"/>
    </edge>
    <edge id=":1313114925_2" function="internal">
        <lane id=":1313114925_2_0" index="0" allow="pedestrian delivery bicycle" speed="5.56" length="5.05" shape="70.80,1652.43 75.84,1652.47"/>
    </edge>
    <edge id=":1313114925_3" function="internal">
        <lane id=":1313114925_3_0" index="0" allow="pedestrian delivery bicycle" speed="3.65" length="2.34" shape="70.80,1652.43 71.99,1651.62 72.39,1650.82"/>
    </edge>
    <edge id=":1313114925_5" function="internal">
        <lane id=":1313114925_5_0" index="0" allow="pedestrian delivery bicycle" speed="3.65" length="2.34" shape="72.39,1650.82 71.98,1650.02 70.78,1649.23"/>
    </edge>
    <edge id=":1313114928_0" function="internal">
        <lane id=":1313114928_0_0" index="0" allow="pedestrian delivery bicycle" speed="5.02" length="5.02" shape="36.00,1649.44 34.63,1649.26 33.66,1648.68 33.08,1647.70 32.91,1646.33"/>
    </edge>
    <edge id=":1313114928_1" function="internal">
        <lane id=":1313114928_1_0" index="0" allow="pedestrian delivery bicycle" speed="3.65" length="4.67" shape="36.00,1649.44 34.80,1650.25 34.41,1651.05 34.81,1651.85 36.02,1652.64"/>
    </edge>
    <edge id=":1313114928_2" function="internal">
        <lane id=":1313114928_2_0" index="0" allow="pedestrian delivery bicycle" speed="5.10" length="5.08" shape="32.79,1655.73 33.00,1654.39 33.61,1653.43 34.62,1652.84 36.02,1652.64"/>
    </edge>
    <edge id=":1313114928_3" function="internal">
        <lane id=":1313114928_3_0" index="0" allow="pedestrian delivery bicycle" speed="5.56" length="9.40" shape="32.79,1655.73 32.91,1646.33"/>
    </edge>
    <edge id=":1313114936_0" function="internal">
        <lane id=":1313114936_0_0" index="0" allow="pedestrian delivery bicycle" speed="5.08" length="5.04" shape="111.21,1662.42 110.99,1663.77 110.38,1664.73 109.38,1665.30 108.00,1665.48"/>
    </edge>
    <edge id=":1313114936_1" function="internal">
        <lane id=":1313114936_1_0" index="0" allow="pedestrian delivery bicycle" speed="5.56" length="9.40" shape="111.21,1662.42 111.03,1671.82"/>
    </edge>
    <edge id=":1313114936_2" function="internal">
        <lane id=":1313114936_2_0" index="0" allow="pedestrian delivery bicycle" speed="3.65" length="4.67" shape="111.21,1662.42 111.99,1663.64 112.78,1664.05 113.59,1663.67 114.41,1662.49"/>
    </edge>
    <edge id=":1313114936_3" function="internal">
        <lane id=":1313114936_3_0" index="0" allow="pedestrian delivery bicycle" speed="5.56" length="9.40" shape="114.23,1671.88 114.41,1662.49"/>
    </edge>
    <edge id=":1313114936_4" function="internal">
        <lane id=":1313114936_4_0" index="0" allow="pedestrian delivery bicycle" speed="5.56" length="10.21" shape="114.23,1671.88 113.88,1669.10 112.73,1667.11 110.77,1665.90 108.00,1665.48"/>
    </edge>
    <edge id=":1313114936_5" function="internal">
        <lane id=":1313114936_5_0" index="0" allow="pedestrian delivery bicycle" speed="3.65" length="4.67" shape="114.23,1671.88 113.45,1670.67 112.66,1670.25 111.85,1670.64 111.03,1671.82"/>
    </edge>
    <edge id=":1313114936_6" function="internal">
        <lane id=":1313114936_6_0" index="0" allow="pedestrian delivery bicycle" speed="5.03" length="5.01" shape="107.97,1668.68 109.33,1668.88 110.29,1669.48 110.86,1670.46 111.03,1671.82"/>
    </edge>
    <edge id=":1313114936_7" function="internal">
        <lane id=":1313114936_7_0" index="0" allow="pedestrian delivery bicycle" speed="5.56" length="10.16" shape="107.97,1668.68 110.74,1668.31 112.74,1667.16 113.96,1665.22 114.41,1662.49"/>
    </edge>
    <edge id=":1313114936_8" function="internal">
        <lane id=":1313114936_8_0" index="0" allow="pedestrian delivery bicycle" speed="3.65" length="4.67" shape="107.97,1668.68 109.18,1667.89 109.59,1667.09 109.19,1666.29 108.00,1665.48"/>
    </edge>
    <edge id=":1313114937_0" function="internal">
        <lane id=":1313114937_0_0" index="0" allow="pedestrian delivery bicycle" speed="5.56" length="5.07" shape="75.65,1665.19 70.58,1665.16"/>
    </edge>
    <edge id=":1313114937_1" function="internal">
        <lane id=":1313114937_1_0" index="0" allow="pedestrian delivery bicycle" speed="3.65" length="2.34" shape="75.65,1665.19 74.44,1665.98 74.04,1666.78"/>
    </edge>
    <edge id=":1313114937_4" function="internal">
        <lane id=":1313114937_4_0" index="0" allow="pedestrian delivery bicycle" speed="3.65" length="2.34" shape="74.04,1666.78 74.43,1667.58 75.62,1668.39"/>
    </edge>
    <edge id=":1313114937_2" function="internal">
        <lane id=":1313114937_2_0" index="0" allow="pedestrian delivery bicycle" speed="5.56" length="5.05" shape="70.57,1668.36 75.62,1668.39"/>
    </edge>
    <edge id=":1313114937_3" function="internal">
        <lane id=":1313114937_3_0" index="0" allow="pedestrian delivery bicycle" speed="3.65" length="2.34" shape="70.57,1668.36 71.77,1667.57 72.18,1666.77"/>
    </edge>
    <edge id=":1313114937_5" function="internal">
        <lane id=":1313114937_5_0" index="0" allow="pedestrian delivery bicycle" speed="3.65" length="2.34" shape="72.18,1666.77 71.78,1665.97 70.58,1665.16"/>
    </edge>
    <edge id=":1313114938_0" function="internal">
        <lane id=":1313114938_0_0" index="0" allow="pedestrian delivery bicycle" speed="5.03" length="5.01" shape="35.78,1665.09 34.42,1664.89 33.46,1664.30 32.88,1663.33 32.71,1661.96"/>
    </edge>
    <edge id=":1313114938_1" function="internal">
        <lane id=":1313114938_1_0" index="0" allow="pedestrian delivery bicycle" speed="3.65" length="4.67" shape="35.78,1665.09 34.58,1665.88 34.18,1666.68 34.58,1667.48 35.78,1668.29"/>
    </edge>
    <edge id=":1313114938_2" function="internal">
        <lane id=":1313114938_2_0" index="0" allow="pedestrian delivery bicycle" speed="5.08" length="5.04" shape="32.58,1671.36 32.80,1670.01 33.40,1669.05 34.39,1668.48 35.78,1668.29"/>
    </edge>
    <edge id=":1313114938_3" function="internal">
        <lane id=":1313114938_3_0" index="0" allow="pedestrian delivery bicycle" speed="5.56" length="9.40" shape="32.58,1671.36 32.71,1661.96"/>
    </edge>
    <edge id=":1313114943_0" function="internal">
        <lane id=":1313114943_0_0" index="0" allow="pedestrian delivery bicycle" speed="5.56" length="5.14" shape="75.50,1680.58 70.36,1680.49"/>
    </edge>
    <edge id=":1313114943_1" function="internal">
        <lane id=":1313114943_1_0" index="0" allow="pedestrian delivery bicycle" speed="3.65" length="2.34" shape="75.50,1680.58 74.27,1681.34 73.85,1682.13"/>
    </edge>
    <edge id=":1313114943_4" function="internal">
        <lane id=":1313114943_4_0" index="0" allow="pedestrian delivery bicycle" speed="3.65" length="2.34" shape="73.85,1682.13 74.22,1682.94 75.39,1683.78"/>
    </edge>
    <edge id=":1313114943_2" function="internal">
        <lane id=":1313114943_2_0" index="0" allow="pedestrian delivery bicycle" speed="5.56" length="5.05" shape="70.35,1683.69 75.39,1683.78"/>
    </edge>
    <edge id=":1313114943_3" function="internal">
        <lane id=":1313114943_3_0" index="0" allow="pedestrian delivery bicycle" speed="3.65" length="2.34" shape="70.35,1683.69 71.55,1682.89 71.96,1682.09"/>
    </edge>
    <edge id=":1313114943_5" function="internal">
        <lane id=":1313114943_5_0" index="0" allow="pedestrian delivery bicycle" speed="3.65" length="2.34" shape="71.96,1682.09 71.56,1681.29 70.36,1680.49"/>
    </edge>
    <edge id=":1313114947_0" function="internal">
        <lane id=":1313114947_0_0" index="0" allow="pedestrian delivery bicycle" speed="5.03" length="5.01" shape="35.58,1680.35 34.22,1680.15 33.25,1679.56 32.68,1678.59 32.50,1677.22"/>
    </edge>
    <edge id=":1313114947_1" function="internal">
        <lane id=":1313114947_1_0" index="0" allow="pedestrian delivery bicycle" speed="3.65" length="4.67" shape="35.58,1680.35 34.37,1681.15 33.97,1681.95 34.37,1682.75 35.56,1683.55"/>
    </edge>
    <edge id=":1313114947_2" function="internal">
        <lane id=":1313114947_2_0" index="0" allow="pedestrian delivery bicycle" speed="5.07" length="5.04" shape="32.38,1686.62 32.59,1685.28 33.19,1684.31 34.18,1683.74 35.56,1683.55"/>
    </edge>
    <edge id=":1313114947_3" function="internal">
        <lane id=":1313114947_3_0" index="0" allow="pedestrian delivery bicycle" speed="5.56" length="9.40" shape="32.38,1686.62 32.50,1677.22"/>
    </edge>
    <edge id=":1313114971_0" function="internal">
        <lane id=":1313114971_0_0" index="0" allow="pedestrian delivery bicycle" speed="5.56" length="5.08" shape="75.20,1695.66 70.12,1695.63"/>
    </edge>
    <edge id=":1313114971_1" function="internal">
        <lane id=":1313114971_1_0" index="0" allow="pedestrian delivery bicycle" speed="3.65" length="2.34" shape="75.20,1695.66 73.99,1696.45 73.59,1697.24"/>
    </edge>
    <edge id=":1313114971_4" function="internal">
        <lane id=":1313114971_4_0" index="0" allow="pedestrian delivery bicycle" speed="3.65" length="2.34" shape="73.59,1697.24 73.98,1698.05 75.17,1698.86"/>
    </edge>
    <edge id=":1313114971_2" function="internal">
        <lane id=":1313114971_2_0" index="0" allow="pedestrian delivery bicycle" speed="5.56" length="5.05" shape="70.12,1698.83 75.17,1698.86"/>
    </edge>
    <edge id=":1313114971_3" function="internal">
        <lane id=":1313114971_3_0" index="0" allow="pedestrian delivery bicycle" speed="3.65" length="2.34" shape="70.12,1698.83 71.32,1698.03 71.72,1697.23"/>
    </edge>
    <edge id=":1313114971_5" function="internal">
        <lane id=":1313114971_5_0" index="0" allow="pedestrian delivery bicycle" speed="3.65" length="2.34" shape="71.72,1697.23 71.32,1696.43 70.12,1695.63"/>
    </edge>
    <edge id=":1313114973_0" function="internal">
        <lane id=":1313114973_0_0" index="0" allow="pedestrian delivery bicycle" speed="5.03" length="5.01" shape="35.38,1695.61 34.02,1695.42 33.05,1694.83 32.48,1693.86 32.30,1692.49"/>
    </edge>
    <edge id=":1313114973_1" function="internal">
        <lane id=":1313114973_1_0" index="0" allow="pedestrian delivery bicycle" speed="3.65" length="4.67" shape="35.38,1695.61 34.18,1696.41 33.78,1697.21 34.18,1698.01 35.38,1698.81"/>
    </edge>
    <edge id=":1313114973_2" function="internal">
        <lane id=":1313114973_2_0" index="0" allow="pedestrian delivery bicycle" speed="5.08" length="5.05" shape="32.18,1701.89 32.39,1700.54 33.00,1699.58 33.99,1699.00 35.38,1698.81"/>
    </edge>
    <edge id=":1313114973_3" function="internal">
        <lane id=":1313114973_3_0" index="0" allow="pedestrian delivery bicycle" speed="5.56" length="9.40" shape="32.18,1701.89 32.30,1692.49"/>
    </edge>
    <edge id=":1313114976_0" function="internal">
        <lane id=":1313114976_0_0" index="0" allow="pedestrian delivery bicycle" speed="5.01" length="4.92" shape="106.79,1707.56 106.59,1708.86 106.01,1709.79 105.03,1710.35 103.67,1710.54"/>
    </edge>
    <edge id=":1313114976_1" function="internal">
        <lane id=":1313114976_1_0" index="0" allow="pedestrian delivery bicycle" speed="5.56" length="9.28" shape="106.79,1707.56 106.78,1716.84"/>
    </edge>
    <edge id=":1313114976_2" function="internal">
        <lane id=":1313114976_2_0" index="0" allow="pedestrian delivery bicycle" speed="3.65" length="4.67" shape="106.79,1707.56 107.59,1708.76 108.39,1709.16 109.19,1708.76 109.99,1707.56"/>
    </edge>
    <edge id=":1313114976_3" function="internal">
        <lane id=":1313114976_3_0" index="0" allow="pedestrian delivery bicycle" speed="5.56" length="9.29" shape="109.98,1716.85 109.99,1707.56"/>
    </edge>
    <edge id=":1313114976_4" function="internal">
        <lane id=":1313114976_4_0" index="0" allow="pedestrian delivery bicycle" speed="5.56" length="10.18" shape="109.98,1716.85 109.59,1714.08 108.41,1712.11 106.43,1710.93 103.67,1710.54"/>
    </edge>
    <edge id=":1313114976_5" function="internal">
        <lane id=":1313114976_5_0" index="0" allow="pedestrian delivery bicycle" speed="3.65" length="4.67" shape="109.98,1716.85 109.18,1715.65 108.38,1715.24 107.58,1715.64 106.78,1716.84"/>
    </edge>
    <edge id=":1313114976_6" function="internal">
        <lane id=":1313114976_6_0" index="0" allow="pedestrian delivery bicycle" speed="5.04" length="5.00" shape="103.68,1713.74 105.03,1713.93 106.00,1714.51 106.59,1715.48 106.78,1716.84"/>
    </edge>
    <edge id=":1313114976_7" function="internal">
        <lane id=":1313114976_7_0" index="0" allow="pedestrian delivery bicycle" speed="5.56" length="10.07" shape="103.68,1713.74 106.44,1713.35 108.41,1712.19 109.59,1710.26 109.99,1707.56"/>
    </edge>
    <edge id=":1313114976_8" function="internal">
        <lane id=":1313114976_8_0" index="0" allow="pedestrian delivery bicycle" speed="3.65" length="4.67" shape="103.68,1713.74 104.87,1712.94 105.27,1712.14 104.87,1711.34 103.67,1710.54"/>
    </edge>
    <edge id=":1313114977_0" function="internal">
        <lane id=":1313114977_0_0" index="0" allow="pedestrian delivery bicycle" speed="5.56" length="5.03" shape="75.00,1710.62 69.97,1710.59"/>
    </edge>
    <edge id=":1313114977_1" function="internal">
        <lane id=":1313114977_1_0" index="0" allow="pedestrian delivery bicycle" speed="3.65" length="2.34" shape="75.00,1710.62 73.80,1711.42 73.40,1712.22"/>
    </edge>
    <edge id=":1313114977_4" function="internal">
        <lane id=":1313114977_4_0" index="0" allow="pedestrian delivery bicycle" speed="3.65" length="2.34" shape="73.40,1712.22 73.80,1713.02 75.00,1713.82"/>
    </edge>
    <edge id=":1313114977_2" function="internal">
        <lane id=":1313114977_2_0" index="0" allow="pedestrian delivery bicycle" speed="5.56" length="5.09" shape="69.92,1713.79 75.00,1713.82"/>
    </edge>
    <edge id=":1313114977_3" function="internal">
        <lane id=":1313114977_3_0" index="0" allow="pedestrian delivery bicycle" speed="3.65" length="2.34" shape="69.92,1713.79 71.13,1713.01 71.54,1712.21"/>
    </edge>
    <edge id=":1313114977_5" function="internal">
        <lane id=":1313114977_5_0" index="0" allow="pedestrian delivery bicycle" speed="3.65" length="2.34" shape="71.54,1712.21 71.15,1711.41 69.97,1710.59"/>
    </edge>
    <edge id=":1313114978_0" function="internal">
        <lane id=":1313114978_0_0" index="0" allow="pedestrian delivery bicycle" speed="5.04" length="5.00" shape="35.18,1710.09 33.82,1709.88 32.86,1709.29 32.29,1708.31 32.11,1706.95"/>
    </edge>
    <edge id=":1313114978_1" function="internal">
        <lane id=":1313114978_1_0" index="0" allow="pedestrian delivery bicycle" speed="3.65" length="4.67" shape="35.18,1710.09 33.97,1710.88 33.56,1711.67 33.94,1712.48 35.13,1713.29"/>
    </edge>
    <edge id=":1313114978_2" function="internal">
        <lane id=":1313114978_2_0" index="0" allow="pedestrian delivery bicycle" speed="5.04" length="5.00" shape="31.99,1716.35 32.20,1715.00 32.80,1714.03 33.77,1713.47 35.13,1713.29"/>
    </edge>
    <edge id=":1313114978_3" function="internal">
        <lane id=":1313114978_3_0" index="0" allow="pedestrian delivery bicycle" speed="5.56" length="9.40" shape="31.99,1716.35 32.11,1706.95"/>
    </edge>
    <edge id=":1313115000_0" function="internal">
        <lane id=":1313115000_0_0" index="0" allow="pedestrian delivery bicycle" speed="5.03" length="5.01" shape="106.77,1722.45 106.57,1723.81 105.98,1724.78 105.01,1725.35 103.64,1725.52"/>
    </edge>
    <edge id=":1313115000_1" function="internal">
        <lane id=":1313115000_1_0" index="0" allow="pedestrian delivery bicycle" speed="5.56" length="9.40" shape="106.77,1722.45 106.75,1731.85"/>
    </edge>
    <edge id=":1313115000_2" function="internal">
        <lane id=":1313115000_2_0" index="0" allow="pedestrian delivery bicycle" speed="3.65" length="4.67" shape="106.77,1722.45 107.56,1723.65 108.36,1724.05 109.16,1723.65 109.97,1722.46"/>
    </edge>
    <edge id=":1313115000_3" function="internal">
        <lane id=":1313115000_3_0" index="0" allow="pedestrian delivery bicycle" speed="5.56" length="9.40" shape="109.95,1731.85 109.97,1722.46"/>
    </edge>
    <edge id=":1313115000_4" function="internal">
        <lane id=":1313115000_4_0" index="0" allow="pedestrian delivery bicycle" speed="5.56" length="10.16" shape="109.95,1731.85 109.56,1729.12 108.38,1727.15 106.41,1725.95 103.64,1725.52"/>
    </edge>
    <edge id=":1313115000_5" function="internal">