<?xml version="1.0" encoding="UTF-8"?>

<!-- generated on 2022-08-17 15:37:38 by Eclipse SUMO duarouter Version 1.10.0
<configuration xmlns:xsi="http://www.w3.org/2001/XMLSchema-instance" xsi:noNamespaceSchemaLocation="http://sumo.dlr.de/xsd/duarouterConfiguration.xsd">

    <input>
        <net-file value="/home/student/DTUsCodeTesting/MyTopo/Mininet_Topologies/SUMO_CODE/2022-08-17-15-37-31/osm.net.xml"/>
        <route-files value="/home/student/DTUsCodeTesting/MyTopo/Mininet_Topologies/SUMO_CODE/2022-08-17-15-37-31/osm.tram.trips.xml"/>
    </input>

    <output>
        <output-file value="/home/student/DTUsCodeTesting/MyTopo/Mininet_Topologies/SUMO_CODE/2022-08-17-15-37-31/osm.tram.trips.xml.tmp"/>
        <write-trips value="true"/>
    </output>

    <time>
        <begin value="0"/>
        <end value="3600"/>
    </time>

    <report>
        <no-warnings value="true"/>
        <ignore-errors value="true"/>
        <no-step-log value="true"/>
    </report>

</configuration>
-->

<routes xmlns:xsi="http://www.w3.org/2001/XMLSchema-instance" xsi:noNamespaceSchemaLocation="http://sumo.dlr.de/xsd/routes_file.xsd">
    <vType id="tram_tram" vClass="tram"/>
    <trip id="51" type="tram_tram" depart="0.00" departLane="best" departSpeed="max" from="175266451#0" to="192074712#7"/>
    <trip id="52" type="tram_tram" depart="68.22" departLane="best" departSpeed="max" from="197169094#0" to="194690460#5"/>
    <trip id="53" type="tram_tram" depart="136.44" departLane="best" departSpeed="max" from="175266451#0" to="192074712#7"/>
    <trip id="54" type="tram_tram" depart="204.67" departLane="best" departSpeed="max" from="175266451#0" to="192074712#7"/>
    <trip id="55" type="tram_tram" depart="341.11" departLane="best" departSpeed="max" from="197169094#0" to="194690460#5"/>
    <trip id="56" type="tram_tram" depart="409.33" departLane="best" departSpeed="max" from="175266451#0" to="192074712#5"/>
    <trip id="57" type="tram_tram" depart="477.56" departLane="best" departSpeed="max" from="175266451#0" to="175266451#8"/>
    <trip id="58" type="tram_tram" depart="545.78" departLane="best" departSpeed="max" from="197169094#0" to="194690460#5"/>
    <trip id="59" type="tram_tram" depart="614.00" departLane="best" departSpeed="max" from="197169094#0" to="194690460#5"/>
    <trip id="60" type="tram_tram" depart="682.22" departLane="best" departSpeed="max" from="197169094#0" to="194690460#5"/>
    <trip id="61" type="tram_tram" depart="750.44" departLane="best" departSpeed="max" from="175266451#0" to="192074712#7"/>
    <trip id="62" type="tram_tram" depart="818.67" departLane="best" departSpeed="max" from="175266451#0" to="192074712#7"/>
    <trip id="63" type="tram_tram" depart="886.89" departLane="best" departSpeed="max" from="175266451#0" to="192074712#7"/>
    <trip id="64" type="tram_tram" depart="955.11" departLane="best" from="175266451#1" to="192074712#7"/>
    <trip id="65" type="tram_tram" depart="1023.33" departLane="best" departSpeed="max" from="197169094#0" to="194690460#5"/>
    <trip id="66" type="tram_tram" depart="1091.56" departLane="best" departSpeed="max" from="175266451#0" to="192074712#7"/>
    <trip id="67" type="tram_tram" depart="1159.78" departLane="best" from="197169094#7" to="194690460#5"/>
    <trip id="68" type="tram_tram" depart="1228.00" departLane="best" from="194690460#3" to="194690460#5"/>
    <trip id="69" type="tram_tram" depart="1296.22" departLane="best" departSpeed="max" from="197169094#0" to="194690460#5"/>
    <trip id="70" type="tram_tram" depart="1364.45" departLane="best" departSpeed="max" from="175266451#0" to="175266451#3"/>
    <trip id="71" type="tram_tram" depart="1432.67" departLane="best" departSpeed="max" from="175266451#0" to="192074712#7"/>
    <trip id="72" type="tram_tram" depart="1500.89" departLane="best" departSpeed="max" from="175266451#0" to="192074712#7"/>
    <trip id="73" type="tram_tram" depart="1569.11" departLane="best" from="194690460#4" to="194690460#5"/>
    <trip id="74" type="tram_tram" depart="1637.33" departLane="best" departSpeed="max" from="175266451#0" to="175266451#4"/>
    <trip id="75" type="tram_tram" depart="1705.56" departLane="best" departSpeed="max" from="175266451#0" to="192074712#7"/>
    <trip id="76" type="tram_tram" depart="1773.78" departLane="best" from="197169094#3" to="194690460#5"/>
    <trip id="77" type="tram_tram" depart="1842.00" departLane="best" departSpeed="max" from="175266451#0" to="192074712#7"/>
    <trip id="78" type="tram_tram" depart="1910.22" departLane="best" departSpeed="max" from="197169094#0" to="194690460#5"/>
    <trip id="79" type="tram_tram" depart="1978.45" departLane="best" departSpeed="max" from="175266451#0" to="192074712#7"/>
    <trip id="80" type="tram_tram" depart="2046.67" departLane="best" departSpeed="max" from="197169094#0" to="194690460#5"/>
    <trip id="81" type="tram_tram" depart="2114.89" departLane="best" departSpeed="max" from="175266451#0" to="175266451#5"/>
    <trip id="82" type="tram_tram" depart="2183.11" departLane="best" departSpeed="max" from="175266451#0" to="192074712#7"/>
    <trip id="83" type="tram_tram" depart="2251.33" departLane="best" from="194690460#1" to="194690460#5"/>
    <trip id="84" type="tram_tram" depart="2319.56" departLane="best" departSpeed="max" from="175266451#0" to="192074712#7"/>
    <trip id="85" type="tram_tram" depart="2387.78" departLane="best" from="197169094#7" to="194690460#5"/>
    <trip id="86" type="tram_tram" depart="2456.00" departLane="best" departSpeed="max" from="175266451#0" to="192074712#7"/>
    <trip id="87" type="tram_tram" depart="2592.45" departLane="best" departSpeed="max" from="175266451#0" to="192074712#7"/>
    <trip id="88" type="tram_tram" depart="2660.67" departLane="best" departSpeed="max" from="175266451#0" to="192074712#1"/>
    <trip id="89" type="tram_tram" depart="2797.11" departLane="best" departSpeed="max" from="175266451#0" to="192074712#7"/>
    <trip id="90" type="tram_tram" depart="2865.33" departLane="best" departSpeed="max" from="197169094#0" to="194690460#5"/>
    <trip id="91" type="tram_tram" depart="2933.56" departLane="best" departSpeed="max" from="175266451#0" to="192074712#7"/>
    <trip id="92" type="tram_tram" depart="3070.00" departLane="best" from="197169094#7" to="194690460#5"/>
    <trip id="93" type="tram_tram" depart="3138.22" departLane="best" from="197169094#3" to="194690460#5"/>
    <trip id="94" type="tram_tram" depart="3206.45" departLane="best" from="194690460#3" to="194690460#5"/>
    <trip id="95" type="tram_tram" depart="3274.67" departLane="best" departSpeed="max" from="175266451#0" to="192074712#7"/>
    <trip id="96" type="tram_tram" depart="3342.89" departLane="best" from="194690460#1" to="194690460#5"/>
</routes>
